14
0 1
C -2.223403000 1.195100000 0.002932000
C -0.836543000 1.210443000 -0.000078000
C -0.117983000 0.017432000 -0.002729000
C -0.812803000 -1.188683000 -0.009937000
C -2.200965000 -1.204445000 0.002393000
C -2.908374000 -0.012220000 0.007603000
H -2.771222000 2.130266000 0.003278000
H -0.312275000 2.158987000 0.001898000
H -0.268569000 -2.126948000 -0.028692000
H -2.728959000 -2.150793000 0.000786000
H -3.991782000 -0.022372000 0.011152000
As 1.836641000 -0.055102000 -0.027990000
H 2.031763000 0.343568000 1.431293000
H 2.032333000 1.379912000 -0.497135000
