14
0 1
C 1.577764000 -0.468793000 0.666443000
C 0.368771000 0.269170000 1.215339000
C 0.368771000 0.269170000 -1.215339000
C 1.577764000 -0.468793000 -0.666443000
H 2.333761000 -0.909686000 1.302078000
H 2.333761000 -0.909686000 -1.302078000
C 0.368771000 1.679051000 0.664577000
H 0.412983000 2.551867000 1.302311000
C 0.368771000 1.679051000 -0.664577000
H 0.412983000 2.551867000 -1.302311000
H 0.204164000 0.169568000 2.284224000
H 0.204164000 0.169568000 -2.284224000
As -0.958479000 -0.660436000 0.000000000
H -2.055670000 0.417748000 0.000000000
