11
0 1
C 0.038809000 0.302544000 0.000000000
C 0.603932000 1.712514000 0.000000000
H 0.187809000 2.210755000 0.879276000
H 0.187809000 2.210755000 -0.879276000
C 2.117357000 1.812271000 0.000000000
H 2.547641000 1.341880000 0.884204000
H 2.547641000 1.341880000 -0.884204000
H 2.406975000 2.863905000 0.000000000
Br 0.603932000 -0.674483000 -1.585999000
Br 0.603932000 -0.674483000 1.585999000
Br -1.906106000 0.408020000 0.000000000
