11
0 1
C -0.583305000 1.003580000 1.233936000
C -0.311213000 0.169388000 0.000000000
H 0.157589000 1.790829000 1.356869000
H -1.577666000 1.445123000 1.167169000
C -0.583305000 1.003580000 -1.233936000
H -0.929561000 -0.726774000 0.000000000
H -1.577666000 1.445123000 -1.167169000
H 0.157589000 1.790829000 -1.356869000
Br -0.583305000 -0.031553000 2.869641000
Br 1.527657000 -0.474164000 0.000000000
Br -0.583305000 -0.031553000 -2.869641000
