17
0 1
C -3.677143000 -0.466829000 0.000037000
C -2.507571000 0.502878000 -0.000031000
H -4.634828000 0.057177000 0.000053000
H -3.651936000 -1.113025000 -0.881203000
H -3.651872000 -1.112968000 0.881317000
C -1.156355000 -0.198710000 -0.000053000
H -2.569370000 1.159041000 -0.875041000
H -2.569305000 1.159089000 0.874951000
C 0.019740000 0.768828000 0.000028000
H -1.097530000 -0.857363000 0.874367000
H -1.097489000 -0.857254000 -0.874553000
H -0.023853000 1.422073000 -0.876472000
H -0.023882000 1.421957000 0.876614000
Ge 1.766425000 -0.119006000 0.000003000
H 1.907159000 -1.010198000 -1.248105000
H 2.908141000 0.912938000 0.000048000
H 1.907141000 -1.010291000 1.248046000
