14
0 1
C -1.108617000 0.751835000 0.662203000
C 0.253847000 0.182117000 1.077100000
C 0.253847000 0.182117000 -1.077100000
C -1.108617000 0.751835000 -0.662203000
H -1.894476000 1.036001000 1.345581000
H -1.894476000 1.036001000 -1.345581000
C 0.253847000 -1.305587000 0.663542000
H 0.177595000 -2.144622000 1.340107000
C 0.253847000 -1.305587000 -0.663542000
H 0.177595000 -2.144622000 -1.340107000
H 0.590606000 0.411976000 2.085297000
H 0.590606000 0.411976000 -2.085297000
H 1.979630000 0.334342000 0.000000000
N 1.069142000 0.788367000 0.000000000
