13
0 1
C 1.122856000 0.466091000 0.155675000
C -1.120800000 0.468807000 0.159000000
C -0.772386000 -1.006849000 -0.052361000
C 0.768997000 -1.009910000 -0.047956000
H 1.992864000 0.795847000 -0.412469000
H 1.303198000 0.677099000 1.220345000
H -1.294786000 0.676250000 1.225501000
H -1.992639000 0.803642000 -0.403334000
H -1.197731000 -1.639089000 0.727601000
H -1.156833000 -1.359517000 -1.009684000
H 1.186711000 -1.637814000 0.739604000
H 1.157874000 -1.372108000 -0.999880000
O 0.001167000 1.193357000 -0.296729000
