10
0, 2
C 0.552927 -0.758415 -0.010219
H 0.571324 -1.776966 -0.368625
H 1.474410 -0.259591 0.245791
C -0.682113 -0.038159 0.138083
O -0.784949 1.104345 0.532865
O -1.747480 -0.799312 -0.222572
C -3.005185 -0.145109 -0.099570
H -3.752917 -0.865008 -0.416773
H -3.186157 0.158912 0.931069
H -3.044559 0.743288 -0.729348
